[General]
network = SimpleAdhocNetwork
sim-time-limit = 10s

*.numNodes = 5